%chk=b3lyp-ts.chk
%mem=6MW
%nproc=1
#N B3LYP/6-31G(d) OPT=(TS,CalcFC) 

C6H9F

0 1
C 
C 1 B1
C 2 B2 1 A1
C 3 B3 2 A2 1 D1
C 4 B4 3 A3 2 D2
C 1 B5 2 A4 3 D3
H 6 B6 1 A5 2 D4
F 6 B7 1 A6 2 D5
H 5 B8 6 A7 1 D6
H 5 B9 6 A8 1 D7
H 4 B10 3 A9 2 D8
H 4 B11 3 A10 2 D9
H 3 B12 2 A11 1 D10
H 2 B13 1 A12 6 D11
H 1 B14 2 A13 3 D12
H 1 B15 2 A14 3 D13

A10 120.96410
A11 119.06411
A12 120.96731
B1 1.3722723
A13 121.58514
B2 1.4061084
A14 119.96780
B3 1.3762155
B4 2.1189832
B5 2.1914369
B6 1.0958651
B7 1.3455740
B8 1.0884986
B10 1.0969373
B9 1.0901671
B11 1.0875644
B12 1.0949895
B13 1.0951031
B14 1.0867372
B15 1.0966203
D10 -172.27093
D11 -110.64719
D12 172.54238
D13 -31.247993
D1 -1.2839235
D2 -63.040057
D3 60.657519
A1 119.46624
D4 77.684569
A2 119.47893
D5 -170.63552
A3 99.298161
A4 100.55345
D6 96.751895
D7 -112.21890
A5 89.108656
D8 31.649181
A6 96.591925
D9 -173.82274
A7 118.66222
A8 120.82980
A9 119.99240

