%chk=butadiene.chk
%mem=6MW
%nproc=1
# opt freq b3lyp/6-31g(d) 

butadiene optimization

0 1
 C
 C                  1              B1
 H                  1              B2    2              A1
 H                  1              B3    2              A2    3              D1
 H                  2              B4    1              A3    4              D2
 C                  2              B5    1              A4    4              D3
 C                  6              B6    2              A5    1              D4
 H                  6              B7    2              A6    1              D5
 H                  7              B8    6              A7    2              D6
 H                  7              B9    6              A8    2              D7

   B1             1.33988177
   B2             1.08726477
   B3             1.08582761
   B4             1.08966378
   B5             1.47138328
   B6             1.33988133
   B7             1.08966821
   B8             1.08581545
   B9             1.08730906
   A1           122.51786573
   A2           121.16868314
   A3           117.87895225
   A4           127.28883282
   A5           127.29415209
   A6           114.83253495
   A7           121.16857265
   A8           122.52845800
   D1          -180.00000000
   D2            -0.00000000
   D3           180.00000000
   D4            10.00000000
   D5          -170.00000000
   D6           180.00000000
   D7             0.00000000
